Version 4
SHEET 1 2032 896
WIRE 192 -544 16 -544
WIRE 336 -544 192 -544
WIRE 512 -544 336 -544
WIRE 672 -544 576 -544
WIRE 784 -544 736 -544
WIRE 1152 -544 784 -544
WIRE 1680 -544 1152 -544
WIRE 1936 -544 1680 -544
WIRE 512 -528 512 -544
WIRE 576 -528 576 -544
WIRE 784 -528 784 -544
WIRE 336 -512 336 -544
WIRE 1152 -480 1152 -544
WIRE 1152 -480 992 -480
WIRE 992 -448 992 -480
WIRE 512 -432 512 -448
WIRE 512 -432 448 -432
WIRE 576 -416 576 -448
WIRE 784 -416 784 -464
WIRE 336 -384 336 -432
WIRE 336 -384 128 -384
WIRE 416 -384 336 -384
WIRE 448 -384 448 -432
WIRE 448 -384 416 -384
WIRE -1200 -368 -1328 -368
WIRE -1072 -368 -1200 -368
WIRE -944 -368 -1072 -368
WIRE -816 -368 -944 -368
WIRE -688 -368 -816 -368
WIRE 16 -368 16 -544
WIRE 16 -368 -688 -368
WIRE -688 -352 -688 -368
WIRE 1936 -352 1936 -544
WIRE -1200 -336 -1200 -368
WIRE 1152 -320 1152 -480
WIRE -1328 -304 -1328 -368
WIRE -1072 -288 -1072 -368
WIRE 992 -272 992 -368
WIRE 1088 -272 992 -272
WIRE -944 -192 -944 -288
WIRE -816 -192 -816 -288
WIRE -816 -192 -944 -192
WIRE -688 -192 -688 -288
WIRE -688 -192 -816 -192
WIRE -672 -192 -688 -192
WIRE 128 -192 128 -384
WIRE 128 -192 -608 -192
WIRE 192 -192 192 -544
WIRE -1328 -176 -1328 -224
WIRE -1200 -176 -1200 -272
WIRE -1200 -176 -1328 -176
WIRE 992 -176 992 -272
WIRE -1072 -160 -1072 -208
WIRE -1328 -144 -1328 -176
WIRE 992 -80 992 -112
WIRE -208 -64 -480 -64
WIRE -160 -64 -208 -64
WIRE 0 -64 -160 -64
WIRE 192 -64 192 -128
WIRE 192 -64 80 -64
WIRE -1072 -32 -1072 -80
WIRE -480 -32 -480 -64
WIRE -480 -32 -1072 -32
WIRE -208 -32 -208 -64
WIRE -160 -32 -160 -64
WIRE 1680 0 1680 -544
WIRE 416 32 416 -384
WIRE -480 48 -480 -32
WIRE 896 48 720 48
WIRE 1024 48 896 48
WIRE 1152 48 1152 -224
WIRE 1152 48 1024 48
WIRE 1936 48 1936 -272
WIRE -720 64 -1136 64
WIRE -208 80 -208 32
WIRE -160 80 -160 32
WIRE -720 112 -720 64
WIRE -640 112 -720 112
WIRE 368 112 240 112
WIRE -992 128 -1056 128
WIRE -848 128 -928 128
WIRE -128 144 -320 144
WIRE 240 144 240 112
WIRE 240 144 -48 144
WIRE 1024 144 1024 48
WIRE 1088 144 1024 144
WIRE 1216 144 1168 144
WIRE 1328 144 1216 144
WIRE 416 160 416 128
WIRE 416 160 288 160
WIRE -848 176 -848 128
WIRE -640 176 -848 176
WIRE 720 176 720 48
WIRE 896 176 896 48
WIRE -1136 192 -1136 64
WIRE -1136 192 -1696 192
WIRE -1056 192 -1056 128
WIRE -1056 192 -1136 192
WIRE 112 192 80 192
WIRE 288 192 288 160
WIRE 288 192 192 192
WIRE 416 192 416 160
WIRE 1328 208 1328 144
WIRE -1056 224 -1056 192
WIRE -992 224 -1056 224
WIRE -848 224 -848 176
WIRE -848 224 -912 224
WIRE -640 240 -832 240
WIRE 1216 256 1216 144
WIRE 1216 256 1120 256
WIRE -96 272 -320 272
WIRE 80 272 80 192
WIRE 80 272 -96 272
WIRE 1120 272 1120 256
WIRE -640 304 -656 304
WIRE 1328 304 1328 272
WIRE -960 320 -1360 320
WIRE -832 320 -832 240
WIRE -832 320 -960 320
WIRE 416 336 416 272
WIRE -1168 352 -1232 352
WIRE -1056 352 -1168 352
WIRE -656 352 -656 304
WIRE -656 352 -1056 352
WIRE -1232 368 -1232 352
WIRE -1168 368 -1168 352
WIRE -960 384 -960 320
WIRE -480 416 -480 368
WIRE 1120 416 1120 336
WIRE 1120 416 1024 416
WIRE 1168 416 1120 416
WIRE -1056 432 -1056 352
WIRE -1024 432 -1056 432
WIRE 1680 432 1680 80
WIRE 1680 432 1232 432
WIRE 1168 448 1120 448
WIRE -1168 464 -1168 432
WIRE 496 464 336 464
WIRE 896 464 896 256
WIRE 896 464 688 464
WIRE 1024 464 1024 416
WIRE 1024 464 896 464
WIRE -960 512 -960 480
WIRE -832 512 -960 512
WIRE -96 512 -96 272
WIRE -96 512 -752 512
WIRE 496 560 432 560
WIRE 720 560 720 256
WIRE 720 560 688 560
WIRE 1680 560 1680 432
WIRE 1120 576 1120 448
WIRE -1360 624 -1360 320
WIRE -1232 624 -1232 448
WIRE -1232 624 -1360 624
WIRE 432 624 432 560
WIRE 432 624 -1232 624
WIRE -1696 672 -1696 192
WIRE -1536 672 -1696 672
WIRE -1248 672 -1456 672
WIRE 336 672 336 464
WIRE 336 672 -1248 672
WIRE -1248 752 -1248 672
WIRE 1680 816 1680 640
WIRE -1248 880 -1248 832
FLAG -1328 -144 0
FLAG -480 416 0
FLAG 1120 576 0
FLAG -208 80 0
FLAG -160 80 0
FLAG 576 -416 0
FLAG 784 -416 0
FLAG -1248 880 0
FLAG -1168 464 0
FLAG 1936 48 0
FLAG 416 336 0
FLAG 992 -80 0
FLAG 1328 304 0
FLAG 1680 816 0
SYMBOL PowerProducts/LT1245 -480 208 R0
SYMATTR InstName U1
SYMBOL res -960 -384 R0
SYMATTR InstName Rsnub1
SYMATTR Value 84.347
SYMBOL res -832 -384 R0
SYMATTR InstName Rsnub2
SYMATTR Value 84.347
SYMBOL res -1088 -304 R0
SYMATTR InstName R1
SYMATTR Value 680
SYMBOL res -1088 -176 R0
SYMATTR InstName R2
SYMATTR Value 680
SYMBOL res -896 208 R90
WINDOW 0 0 56 VBottom 2
WINDOW 3 32 56 VTop 2
SYMATTR InstName R3
SYMATTR Value 10k
SYMBOL cap -1216 -336 R0
SYMATTR InstName Cin1
SYMATTR Value 4.7µ
SYMBOL cap -704 -352 R0
SYMATTR InstName Csnub1
SYMATTR Value 4.7µ
SYMBOL cap -928 112 R90
WINDOW 0 0 32 VBottom 2
WINDOW 3 32 32 VTop 2
SYMATTR InstName C1
SYMATTR Value 1n
SYMBOL cap -1184 368 R0
WINDOW 3 25 60 Left 2
SYMATTR Value 1n
SYMATTR InstName Ct1
SYMBOL polcap 1312 208 R0
WINDOW 3 24 56 Left 2
SYMATTR InstName C2
SYMATTR Value 47µ
SYMATTR Description Capacitor
SYMATTR Type cap
SYMATTR SpiceLine Rser=1.2374 Lser=3.5139n mfg="Würth Elektronik" pn="860240372002 WCAP-AT1H 5x11" type="Al electrolytic"
SYMBOL voltage -1328 -320 R0
SYMATTR InstName V1
SYMATTR Value 12
SYMBOL schottky -608 -208 R90
WINDOW 0 0 32 VBottom 2
WINDOW 3 32 32 VTop 2
SYMATTR InstName D1
SYMATTR Value RB168LAM150
SYMATTR Description Diode
SYMATTR Type diode
SYMBOL ind2 592 -544 M0
WINDOW 0 -1 40 Right 2
WINDOW 3 0 65 Right 2
SYMATTR InstName L1
SYMATTR Value 49m
SYMATTR SpiceLine Rser=.05
SYMBOL ind2 496 -432 M180
WINDOW 0 2 80 Right 2
WINDOW 3 1 42 Right 2
SYMATTR InstName L2
SYMATTR Value 1m
SYMATTR SpiceLine Rser=.05
SYMBOL diode 672 -560 M90
WINDOW 0 0 32 VBottom 2
WINDOW 3 32 32 VTop 2
SYMATTR InstName D2
SYMATTR Value MUR460
SYMATTR Description Schottky diode
SYMATTR Type schottky
SYMBOL cap 768 -528 R0
SYMATTR InstName C3
SYMATTR Value 10µ
SYMBOL cap -224 -32 R0
WINDOW 3 -49 56 Left 2
SYMATTR Value 100n
SYMATTR InstName C4
SYMBOL cap -176 -32 R0
SYMATTR InstName C5
SYMATTR Value 220µ
SYMBOL res -16 -48 R270
WINDOW 0 32 56 VTop 2
WINDOW 3 0 56 VBottom 2
SYMATTR InstName R4
SYMATTR Value 10
SYMBOL schottky 176 -192 R0
SYMATTR InstName D3
SYMATTR Value BAT54
SYMATTR Description Diode
SYMATTR Type diode
SYMBOL nmos 368 32 R0
SYMATTR InstName M1
SYMATTR Value IRF7303
SYMBOL res 400 176 R0
SYMATTR InstName Rsense1
SYMATTR Value 0.030574
SYMBOL res 96 208 R270
WINDOW 0 32 56 VTop 2
WINDOW 3 0 56 VBottom 2
SYMATTR InstName Rcs1
SYMATTR Value 1k
SYMBOL res -1440 656 R90
WINDOW 0 0 56 VBottom 2
WINDOW 3 32 56 VTop 2
SYMATTR InstName R5
SYMATTR Value 4.99k
SYMBOL res -1232 848 R180
WINDOW 0 36 76 Left 2
WINDOW 3 36 40 Left 2
SYMATTR InstName R6
SYMATTR Value 7.68k
SYMBOL npn -1024 384 R0
SYMATTR InstName Q1
SYMATTR Value 2N2222
SYMBOL res -1216 464 R180
WINDOW 0 36 76 Left 2
WINDOW 3 36 40 Left 2
SYMATTR InstName Rt1
SYMATTR Value 8.66k
SYMBOL res -848 528 R270
WINDOW 0 32 56 VTop 2
WINDOW 3 0 56 VBottom 2
SYMATTR InstName Rsc1
SYMATTR Value 4.12k
SYMBOL res -32 128 R90
WINDOW 0 0 56 VBottom 2
WINDOW 3 32 56 VTop 2
SYMATTR InstName R7
SYMATTR Value 8.25
SYMBOL res 1664 -16 R0
SYMATTR InstName Rfbt1
SYMATTR Value 54.9k
SYMBOL res 1664 544 R0
SYMATTR InstName Rfbb
SYMATTR Value 3.01k
SYMBOL res 1920 -368 R0
SYMATTR InstName Rload1
SYMATTR Value 48
SYMBOL npn 1088 -320 R0
SYMATTR InstName Q2
SYMATTR Value BC846B
SYMBOL AutoGenerated/TL431 1200 432 R180
SYMATTR InstName U2
SYMBOL Optos/PC817A 592 512 R180
SYMATTR InstName U3
SYMBOL res 976 -464 R0
SYMATTR InstName R8
SYMATTR Value 20k
SYMBOL zener 1008 -112 R180
WINDOW 0 24 64 Left 2
WINDOW 3 24 0 Left 2
SYMATTR InstName D4
SYMATTR Value TFZV22B
SYMBOL res 704 160 R0
SYMATTR InstName Rled1
SYMATTR Value 15.4k
SYMBOL res 880 160 R0
SYMATTR InstName Rbias1
SYMATTR Value 13.7k
SYMBOL res 1184 128 R90
WINDOW 0 0 56 VBottom 2
WINDOW 3 32 56 VTop 2
SYMATTR InstName R9
SYMATTR Value 15.4k
SYMBOL schottky 1136 336 R180
WINDOW 0 24 64 Left 2
WINDOW 3 24 0 Left 2
SYMATTR InstName D5
SYMATTR Value RBR30T60ANZ
SYMATTR Description Diode
SYMATTR Type diode
SYMBOL ind 320 -528 R0
SYMATTR InstName L3
SYMATTR Value 6µ
TEXT 544 -552 Bottom 2 !K1 L1 L2 1
TEXT -264 -816 Left 2 !.tran 20m
